%mem=54gb
%nproc=54
%chk=MaDA-TS-2-conf-1.chk 

# wb97xd/6-31G(d) opt(calcfc,noeigen,TS) freq=noraman integral(ultrafinegrid) scrf=(cpcm,read,solvent=water)

Candidate Structure: MaDA-TS-2, Conformer: 1, geometry optimization and frequency calculation with water solvation

0 1
 C  -7.95248900  0.65608900  1.01158900
 C  -7.73361500  -0.25182600  2.04540300
 C  -6.46757200  -0.80262400  2.23206900
 C  -5.43103800  -0.42681800  1.38474000
 C  -5.60996900  0.49059500  0.34962200
 C  -6.90168400  1.01568900  0.17451100
 H  -8.94848100  1.06892700  0.87613800
 H  -6.29104900  -1.52269900  3.02724800
 H  -4.45608100  -0.88620800  1.52051800
 O  -8.79932400  -0.56253300  2.82960200
 H  -8.52027500  -1.19411800  3.50309600
 O  -7.08565600  1.87664300  -0.86380300
 H  -7.99908900  2.18608800  -0.86289100
 C  -4.52306500  0.85817700  -0.59424100
 H  -4.74987700  1.69098400  -1.25444000
 C  -3.18772900  0.77265700  -0.17536100
 H  -2.95044500  0.28952900  0.76099800
 C  -2.11854900  1.49224500  -0.83324300
 O  -2.22599100  1.85629800  -2.02743200
 C  -0.85619000  1.68486700  -0.09181400
 C  -0.79581000  1.64260900  1.30967600
 C  0.35349300  1.84730000  -0.80517400
 C  0.40313000  1.72005000  1.98223600
 H  -1.71795500  1.57559100  1.87828900
 C  1.59432700  1.87945600  -0.14542500
 C  1.59681200  1.81249400  1.25042600
 H  0.45552800  1.71666000  3.06556900
 O  0.35886400  1.93964700  -2.14151200
 H  -0.58901600  1.99118500  -2.42165600
 O  2.73725600  1.83552100  1.97961100
 H  3.49432900  2.00392800  1.39206900
 C  1.80443300  -1.57964900  -0.07066900
 C  1.49909900  -1.53461700  -1.42722600
 C  0.77848300  -1.64560200  0.87654700
 C  0.16713800  -1.50113300  -1.82439200
 H  2.27656500  -1.49782700  -2.18015700
 C  -0.54606900  -1.61623600  0.46486100
 H  1.01723800  -1.70427900  1.93460100
 C  -0.88763500  -1.52388200  -0.89337600
 O  -1.56573800  -1.63918300  1.36982800
 H  -1.19095200  -1.50147700  2.24836400
 O  -0.06686700  -1.44141000  -3.15745400
 H  -1.00849000  -1.57180800  -3.32586500
 C  -2.25765400  -1.28531300  -1.36414500
 H  -2.32083600  -0.54313000  -2.15650100
 C  -3.36412600  -2.06907100  -1.13306300
 H  -3.26540600  -2.94699400  -0.49855000
 C  -4.65116500  -1.68174600  -1.55905600
 C  -4.84503500  -0.41985900  -2.12327600
 H  -4.06913200  0.05141300  -2.72019700
 H  -5.85454900  -0.14198000  -2.41967800
 C  -5.84411200  -2.52795200  -1.19662400
 H  -5.62911000  -3.19243000  -0.35402800
 H  -6.70001800  -1.90199100  -0.92403100
 H  -6.14821600  -3.15253900  -2.04619200
 C  2.87149000  1.93792900  -0.95665100
 H  2.59890300  2.18938300  -1.98628500
 H  3.31452400  0.93532700  -0.99571500
 C  3.86621700  2.95059600  -0.44332100
 H  3.42904800  3.91156300  -0.16777900
 C  5.19318500  2.80836000  -0.30947600
 C  6.03887900  3.93928100  0.21858500
 H  6.77604200  4.25393800  -0.53112900
 H  5.43621800  4.81006800  0.49220500
 H  6.60564000  3.62071200  1.10287700
 C  5.96660100  1.57229600  -0.68228600
 H  6.51159100  1.17310900  0.18218700
 H  5.34075100  0.77366500  -1.08204500
 H  6.71762200  1.81838200  -1.44358800
 C  5.17683400  -1.25193900  1.37540600
 C  5.35400000  -1.73309100  0.07105900
 C  6.58764200  -1.98004200  -0.50871600
 C  7.70026300  -1.71494300  0.28271500
 C  7.56329400  -1.22536800  1.59648700
 C  6.31197700  -0.99383500  2.14813100
 C  3.75390300  -1.12808600  1.54568100
 C  3.19271100  -1.52552300  0.37618300
 H  6.69585700  -2.35029600  -1.52081800
 H  8.45626600  -1.02972400  2.18608900
 H  6.22299900  -0.61575900  3.16172200
 H  3.22734000  -0.72782600  2.39899200
 O  8.92179300  -1.94811500  -0.27016300
 H  9.60726100  -1.73448100  0.37345200
 O  4.15351400  -1.89363200  -0.53908100




