%mem=50gb
%nproc=50
%chk=MaDA-exo-1-conf-1.chk 

# wb97xd/6-31G(d) opt freq=noraman integral(ultrafinegrid) scrf=(cpcm,read,solvent=water)

Candidate Structure: MaDA-exo-1, Conformer: 1, geometry optimization and frequency calculation with water solvation

0 1
 C   9.399116  -2.851075  -9.079952
 C  10.518762  -2.012410  -9.245010
 C  10.452967  -0.670252  -8.828222
 C   9.272238  -0.173355  -8.245390
 C   8.145618  -1.007574  -8.062843
 C   8.213629  -2.356476  -8.495529
 C   6.875201  -0.432729  -7.420493
 C   7.127141   0.290066  -6.061677
 O   7.141226  -3.193236  -8.362731
 O  11.659307  -2.504001  -9.811880
 C   7.838157  -0.622713  -5.026117
 C   8.677019  -0.000643  -3.948909
 O   7.613468  -1.839014  -5.038185
 C   8.536894  -0.547287  -2.653025
 C   9.254643  -0.030448  -1.562049
 C  10.150581   1.034865  -1.750168
 C  10.344775   1.575420  -3.044743
 C   9.615062   1.052261  -4.146020
 O   9.854346   1.569332  -5.388886
 O  10.826749   1.527157  -0.669657
 C  11.337420   2.718220  -3.252199
 C  10.679001   4.085797  -3.264632
 C  11.277493   5.253341  -3.568091
 C  10.515691   6.563214  -3.548270
 C  12.741241   5.380950  -3.951311
 O   7.716073   5.642460  -1.350667
 C   6.969974   4.526605  -1.063024
 C   6.682336   4.450141   0.280574
 C   8.635715   7.500407   0.039392
 C   7.922853   6.307009  -0.160690
 C   7.290606   5.595978   0.889593
 C   7.399799   6.140085   2.190106
 C   8.111075   7.339527   2.416608
 C   8.727930   8.018298   1.344175
 C   6.158960   0.480796  -8.439593
 C   4.078908   1.925659  -8.843451
 C   5.019310   1.284320  -7.843669
 C   4.872785   1.444453  -6.518192
 C   5.800127   0.855574  -5.465123
 O   5.198121   0.277059  -2.675596
 C   6.603462   3.131043  -4.569694
 C   6.041761   1.851388  -4.317499
 C   5.747493   1.492327  -2.975955
 C   6.042931   2.377646  -1.920707
 C   6.629226   3.635434  -2.169568
 C   6.890722   4.003793  -3.505514
 O   9.413422   9.174399   1.562312
 O   6.891222   3.556039  -5.836136
 H   9.456472  -3.879251  -9.408793
 H  11.300083  -0.009333  -8.950265
 H   9.240032   0.861751  -7.937448
 H   6.187414  -1.250853  -7.204531
 H   7.767451   1.136219  -6.281321
 H   7.307443  -4.073454  -8.685543
 H  12.353925  -1.855144  -9.879364
 H   7.844267  -1.359626  -2.480352
 H   9.103313  -0.460124  -0.581351
 H  10.416524   2.335330  -5.365275
 H  10.613630   1.079626   0.142850
 H  12.092582   2.709395  -2.466343
 H  11.891476   2.564734  -4.178150
 H   9.634287   4.094211  -2.989010
 H   9.464411   6.415674  -3.300228
 H  10.944503   7.241083  -2.809628
 H  10.564301   7.045663  -4.524912
 H  13.274407   4.431657  -3.916652
 H  12.832037   5.778715  -4.962506
 H  13.247638   6.067176  -3.271827
 H   6.114718   3.685883   0.792304
 H   9.098647   7.998974  -0.799673
 H   6.932091   5.629096   3.020303
 H   8.174880   7.728096   3.425539
 H   6.860683   1.193506  -8.874708
 H   5.782801  -0.126727  -9.264068
 H   3.292511   2.495880  -8.347356
 H   4.626581   2.604282  -9.498161
 H   3.603629   1.163335  -9.461514
 H   4.039589   2.021385  -6.139879
 H   5.231924   0.007565  -5.083463
 H   5.016882   0.161356  -1.748401
 H   5.835664   2.084806  -0.901722
 H   7.329317   4.967259  -3.723173
 H   9.420405   9.447157   2.475887
 H   6.570547   2.960953  -6.504385






